YMZ
  CCTOOLS-1108241532

 42 44  0  0  1  0  0  0  0  0999 V2000
    3.8130   -3.1180   -0.2010 F   0  0  0  0  0
    3.3040   -1.8150   -0.2150 C   0  0  0  0  0
    4.0460   -1.0140    0.6590 F   0  0  0  0  0
    3.3910   -1.2940   -1.5110 F   0  0  0  0  0
    1.8620   -1.8340    0.2230 C   0  0  0  0  0
    1.2650   -3.0110    0.5550 C   0  0  0  0  0
   -0.0670   -3.0510    0.9630 C   0  0  0  0  0
   -0.8090   -1.9130    1.0400 C   0  0  0  0  0
   -0.2260   -0.6800    0.7050 C   0  0  0  0  0
    1.1300   -0.6360    0.2950 C   0  0  0  0  0
    1.6910    0.5350   -0.0240 N   0  0  0  0  0
    1.0100    1.6550    0.0330 C   0  0  0  0  0
    1.6920    2.9470   -0.3380 C   0  0  0  0  0
    0.9560    3.5910   -1.3380 F   0  0  0  0  0
    1.7700    3.7730    0.7890 F   0  0  0  0  0
    2.9810    2.6760   -0.8080 F   0  0  0  0  0
   -0.3250    1.6810    0.4270 C   0  0  0  0  0
   -0.9580    0.5200    0.7710 C   0  0  0  0  0
   -2.4010    0.5240    1.2060 C   0  0  0  0  0
   -2.7340    1.8060    1.7410 O   0  0  0  0  0
   -3.2960    0.2250    0.0020 C   0  0  0  0  0
   -4.7620    0.2300    0.4430 C   0  0  0  0  0
   -5.6530   -0.0890   -0.7600 C   0  0  0  0  0
   -5.2440   -1.4450   -1.3440 C   0  0  0  0  0
   -3.7640   -1.4010   -1.7330 C   0  0  0  0  0
   -2.9540   -1.0930   -0.5480 N   0  0  0  0  0
    1.8320   -3.9280    0.5020 H   0  0  0  0  0
   -0.5170   -3.9990    1.2200 H   0  0  0  0  0
   -1.8420   -1.9570    1.3530 H   0  0  0  0  0
   -0.8590    2.6190    0.4640 H   0  0  0  0  0
   -2.5520   -0.2390    1.9700 H   0  0  0  0  0
   -2.6230    2.5340    1.1150 H   0  0  0  0  0
   -3.1450    0.9880   -0.7620 H   0  0  0  0  0
   -4.9120   -0.5230    1.2170 H   0  0  0  0  0
   -5.0200    1.2130    0.8370 H   0  0  0  0  0
   -6.6950   -0.1300   -0.4420 H   0  0  0  0  0
   -5.5330    0.6850   -1.5180 H   0  0  0  0  0
   -5.4010   -2.2240   -0.5980 H   0  0  0  0  0
   -5.8460   -1.6580   -2.2270 H   0  0  0  0  0
   -3.4660   -2.3690   -2.1350 H   0  0  0  0  0
   -3.6100   -0.6310   -2.4880 H   0  0  0  0  0
   -3.0490   -1.8130    0.1530 H   0  0  0  0  0
  2  1  1  0  0  0
  2  3  1  0  0  0
  2  4  1  0  0  0
  5  2  1  0  0  0
  6  5  2  0  0  0
  6 27  1  0  0  0
  7  6  1  0  0  0
  7 28  1  0  0  0
  8  9  1  0  0  0
  8  7  2  0  0  0
  8 29  1  0  0  0
  9 10  1  0  0  0
 10 11  2  0  0  0
 10  5  1  0  0  0
 12 11  1  0  0  0
 12 13  1  0  0  0
 13 16  1  0  0  0
 14 13  1  0  0  0
 15 13  1  0  0  0
 17 12  2  0  0  0
 17 30  1  0  0  0
 18  9  2  0  0  0
 18 17  1  0  0  0
 19 20  1  0  0  0
 19 18  1  0  0  0
 19 31  1  0  0  0
 20 32  1  0  0  0
 21 26  1  0  0  0
 21 19  1  0  0  0
 21 33  1  0  0  0
 22 21  1  0  0  0
 22 34  1  0  0  0
 22 35  1  0  0  0
 23 24  1  0  0  0
 23 22  1  0  0  0
 23 36  1  0  0  0
 23 37  1  0  0  0
 24 25  1  0  0  0
 24 38  1  0  0  0
 24 39  1  0  0  0
 25 26  1  0  0  0
 25 40  1  0  0  0
 25 41  1  0  0  0
 26 42  1  0  0  0
M  END
$$$$
